!VERSION
 3
!SOLUTION,TYPE=STATIC
!BOUNDARY
 fix, 1, 3, 0.0
!CLOAD
 1, 1, -100.0
!SOLVER,METHOD=DIRECT,ITERLOG=NO,TIMELOG=NO, DUMPTYPE = MM, DUMPEXIT = YES
 10000, 1
 1.0e-8, 1.0, 0.0
!MATERIAL, NAME=FC300
!ELASTIC, TYPE=ISOTROPIC
 130000000.0, 0.27
!DENSITY
 7.4e-06
!EXPANSION_COEFF
 1.2e-05
!END
