*NODE
1, 0., 0., 0.
2, 0., 0., 150.
3, 30., 0., 0.
4, 30., 0., 150.
5, 30., 30., 0.
6, 30., 30., 150.
7, 0., 30., 0.
8, 0., 30., 150.
9, 0., 0., 8.29741875070608
10, 0., 0., 17.1149780956347
11, 0., 0., 25.6250027737473
12, 0., 0., 36.4559617556341
13, 0., 0., 45.0000030510128
14, 0., 0., 56.9098530510128
15, 0., 0., 66.1803476465128
16, 0., 0., 76.1803476465128
17, 0., 0., 85.0000030510128
18, 0., 0., 96.9098530510128
19, 0., 0., 105.000003051013
20, 0., 0., 116.909853051013
** ... 405 like lines cut
*NSET, NSET="Fixed (26)-1"
1, 3, 5, 7, 24, 25, 26, 45, 46, 47, 66, 67, 68, 87, 88, 89
273, 274, 275, 276, 277, 278, 279, 280, 281
*NSET, NSET="Force (29)-1"
2
*ELEMENT, TYPE=C3D4
1, 1, 24, 89, 9
2, 93, 24, 9, 291
3, 281, 89, 24, 291
4, 291, 89, 24, 9
5, 9, 291, 89, 272
6, 278, 281, 25, 291
7, 291, 96, 25, 292
8, 291, 24, 281, 25
9, 25, 291, 24, 93
10, 291, 278, 281, 280
11, 112, 113, 43, 322
12, 271, 88, 280, 89
13, 293, 280, 291, 271
14, 281, 280, 89, 291
15, 291, 280, 89, 271
16, 271, 89, 291, 272
17, 292, 278, 280, 279
18, 292, 280, 293, 294
19, 280, 279, 294, 292
20, 296, 297, 292, 291
** ... 1383 like lines cut
*ELSET, ELSET="Solid Section1-1"
1, 2, 3, 4, 5, 6, 7, 8, 9, 10, 11, 12, 13, 14, 15, 16
17, 18, 19, 20, 21, 22, 23, 24, 25, 26, 27, 28, 29, 30, 31, 32
33, 34, 35, 36, 37, 38, 39, 40, 41, 42, 43, 44, 45, 46, 47, 48
49, 50, 51, 52, 53, 54, 55, 56, 57, 58, 59, 60, 61, 62, 63, 64
65, 66, 67, 68, 69, 70, 71, 72, 73, 74, 75, 76, 77, 78, 79, 80
81, 82, 83, 84, 85, 86, 87, 88, 89, 90, 91, 92, 93, 94, 95, 96
97, 98, 99, 100, 101, 102, 103, 104, 105, 106, 107, 108, 109, 110, 111, 112
113, 114, 115, 116, 117, 118, 119, 120, 121, 122, 123, 124, 125, 126, 127, 128
129, 130, 131, 132, 133, 134, 135, 136, 137, 138, 139, 140, 141, 142, 143, 144
145, 146, 147, 148, 149, 150, 151, 152, 153, 154, 155, 156, 157, 158, 159, 160
161, 162, 163, 164, 165, 166, 167, 168, 169, 170, 171, 172, 173, 174, 175, 176
177, 178, 179, 180, 181, 182, 183, 184, 185, 186, 187, 188, 189, 190, 191, 192
193, 194, 195, 196, 197, 198, 199, 200, 201, 202, 203, 204, 205, 206, 207, 208
209, 210, 211, 212, 213, 214, 215, 216, 217, 218, 219, 220, 221, 222, 223, 224
225, 226, 227, 228, 229, 230, 231, 232, 233, 234, 235, 236, 237, 238, 239, 240
241, 242, 243, 244, 245, 246, 247, 248, 249, 250, 251, 252, 253, 254, 255, 256
257, 258, 259, 260, 261, 262, 263, 264, 265, 266, 267, 268, 269, 270, 271, 272
273, 274, 275, 276, 277, 278, 279, 280, 281, 282, 283, 284, 285, 286, 287, 288
289, 290, 291, 292, 293, 294, 295, 296, 297, 298, 299, 300, 301, 302, 303, 304
305, 306, 307, 308, 309, 310, 311, 312, 313, 314, 315, 316, 317, 318, 319, 320
** ... 68 like lines cut
*SURFACE, NAME="Geometric Group.3 (32)-1", TYPE=ELEMENT
31, S1
67, S1
68, S1
80, S1
84, S1
115, S1
161, S1
166, S1
254, S1
313, S1
323, S1
327, S1
332, S1
334, S1
337, S1
338, S1
342, S1
862, S1
1400, S1
251, S2
** ... 12 like lines cut
*MATERIAL, NAME="FC300 --- SHARED"
*ELASTIC, TYPE=ISOTROPIC
130000000., 0.27
*DENSITY
7.4e-06
*PLASTIC, HARDENING=ISOTROPIC
220594., 0.
*EXPANSION, TYPE=ISOTROPIC, ZERO=0.
1.2e-05
*SOLID SECTION, MATERIAL="FC300 --- SHARED", ELSET="Solid Section1-1"
1.
