*NODE
1, -180.000003814697, 119.999999236315, 300.
2, -180.000003814697, 119.999999236315, 330.
3, -180.000003814697, -7.63684511184692e-07, 300.
4, -180.000003814697, -7.63684511184692e-07, 330.
5, -3.814697265625e-06, 119.999999236315, 300.
6, -3.814697265625e-06, -7.63684511184692e-07, 300.
7, 59.9999961853027, -7.63684511184692e-07, 330.
8, 59.9999961853027, 119.999999236315, 330.
9, 30., -7.63684511184692e-07, 300.
10, 59.9999961853027, -7.63684511184692e-07, 300.
11, 59.9999961853027, 119.999999236315, 300.
12, 30., 119.999999236315, 300.
13, -3.814697265625e-06, 119.999999236315, 0.
14, -3.814697265625e-06, -7.63684511184692e-07, 0.
15, 30., -7.63684511184692e-07, 0.
16, 30., 119.999999236315, 0.
17, -180.000003814697, 99.9999992363155, 300.
18, -180.000003814697, 79.9999992363155, 300.
19, -180., 59.9999992363155, 300.
20, -180., 42.3606884273155, 300.
** ... 550 like lines cut
*NSET, NSET="Fixed (26)-1"
13, 14, 15, 16, 101, 102, 103, 104, 105, 120, 121, 122, 123, 124, 125, 126
327, 328, 329, 330, 331
*NSET, NSET="Point_A (29)-1"
19
*NSET, NSET="Point_O (32)-1"
103
*ELEMENT, TYPE=C3D4
1, 218, 220, 73, 465
2, 180, 197, 234, 237
3, 422, 170, 453, 42
4, 64, 22, 2, 460
5, 220, 465, 218, 466
6, 22, 460, 178, 17
7, 548, 241, 157, 244
8, 304, 101, 327, 429
9, 467, 469, 63, 254
10, 535, 532, 212, 47
11, 428, 28, 196, 176
12, 21, 554, 3, 42
13, 453, 169, 203, 204
14, 69, 548, 244, 241
15, 21, 554, 42, 170
16, 453, 170, 422, 203
17, 43, 100, 5, 430
18, 447, 246, 540, 155
19, 170, 169, 203, 453
20, 554, 422, 42, 170
** ... 1679 like lines cut
*ELSET, ELSET="Solid Section1-1"
1, 2, 3, 4, 5, 6, 7, 8, 9, 10, 11, 12, 13, 14, 15, 16
17, 18, 19, 20, 21, 22, 23, 24, 25, 26, 27, 28, 29, 30, 31, 32
33, 34, 35, 36, 37, 38, 39, 40, 41, 42, 43, 44, 45, 46, 47, 48
49, 50, 51, 52, 53, 54, 55, 56, 57, 58, 59, 60, 61, 62, 63, 64
65, 66, 67, 68, 69, 70, 71, 72, 73, 74, 75, 76, 77, 78, 79, 80
81, 82, 83, 84, 85, 86, 87, 88, 89, 90, 91, 92, 93, 94, 95, 96
97, 98, 99, 100, 101, 102, 103, 104, 105, 106, 107, 108, 109, 110, 111, 112
113, 114, 115, 116, 117, 118, 119, 120, 121, 122, 123, 124, 125, 126, 127, 128
129, 130, 131, 132, 133, 134, 135, 136, 137, 138, 139, 140, 141, 142, 143, 144
145, 146, 147, 148, 149, 150, 151, 152, 153, 154, 155, 156, 157, 158, 159, 160
161, 162, 163, 164, 165, 166, 167, 168, 169, 170, 171, 172, 173, 174, 175, 176
177, 178, 179, 180, 181, 182, 183, 184, 185, 186, 187, 188, 189, 190, 191, 192
193, 194, 195, 196, 197, 198, 199, 200, 201, 202, 203, 204, 205, 206, 207, 208
209, 210, 211, 212, 213, 214, 215, 216, 217, 218, 219, 220, 221, 222, 223, 224
225, 226, 227, 228, 229, 230, 231, 232, 233, 234, 235, 236, 237, 238, 239, 240
241, 242, 243, 244, 245, 246, 247, 248, 249, 250, 251, 252, 253, 254, 255, 256
257, 258, 259, 260, 261, 262, 263, 264, 265, 266, 267, 268, 269, 270, 271, 272
273, 274, 275, 276, 277, 278, 279, 280, 281, 282, 283, 284, 285, 286, 287, 288
289, 290, 291, 292, 293, 294, 295, 296, 297, 298, 299, 300, 301, 302, 303, 304
305, 306, 307, 308, 309, 310, 311, 312, 313, 314, 315, 316, 317, 318, 319, 320
** ... 87 like lines cut
*MATERIAL, NAME="FC300 --- SHARED"
*ELASTIC, TYPE=ISOTROPIC
130000000., 0.27
*DENSITY
7.4e-06
*EXPANSION, TYPE=ISOTROPIC, ZERO=0.
1.2e-05
*SOLID SECTION, MATERIAL="FC300 --- SHARED", ELSET="Solid Section1-1"
1.
