############################################################
# Direct K+H matrix export for the level-2 refined Tji mesh  #
# (22123 nodes, 108736 elements, C3D4 -> 341)                #
############################################################
!VERSION
 3
!SOLUTION,TYPE=STATIC
!BOUNDARY
 fix, 1, 3, 0.0
!TEMPERATURE
 19, 1.0
!SOLVER,METHOD=DIRECT,ITERLOG=NO,TIMELOG=YES,DUMPTYPE=MM,DUMPH=YES,DUMPEXIT=YES
 10000, 1
 1.0e-8, 1.0, 0.0
!MATERIAL, NAME=FC300
!ELASTIC, TYPE=ISOTROPIC
 130000.0, 0.27
!DENSITY
 7.4e-06
!EXPANSION_COEFF
 1.0e-05
!END
