###############################################
# Control File for FrontISTR                  #
# generated by REVOCAP at 2015.04.03 09:42:11 #
###############################################
!VERSION
 3
####################
# Analysis Control #
####################
!WRITE,VISUAL
!WRITE,RESULT
!SOLUTION,TYPE=STATIC
!STATIC
##################
# SOLVER CONTROL #
##################
!RESTART, FREQUENCY=1
!SOLVER,METHOD=CG,PRECOND=1,ITERLOG=NO,TIMELOG=YES
 20000, 2
 1.00000e-06, 1.00000, 0.00000
 0.100000, 0.100000
##################
# Output Control #
##################
!OUTPUT_RES
DISP, ON
NMISES, ON
NSTRESS, ON
EMISES, ON
######################
# Boundary Condition #
######################
!BOUNDARY, GRPID=1
fix, 1, 1, 0.0
fix, 2, 2, 0.0
fix, 3, 3, 0.0
#####################
# Centrifugal Force #
#####################
##############
# Body Force #
##############
###############
# Temperature #
###############
!TEMPERATURE, GRPID=1
ALL, 393
!REFTEMP
293
############
# Material #
############
!MATERIAL, NAME=Aluminum
!ELASTIC, TYPE=ISOTROPIC
70000000000, 0.345
!DENSITY
2690
!EXPANSION_COEFF, DEPENDENCIES=0
0.000025
!MATERIAL, NAME=Steel
!ELASTIC, TYPE=ISOTROPIC
206000000000, 0.29
!DENSITY
7860
!EXPANSION_COEFF, DEPENDENCIES=0
0.000012
############
# Coupling #
############
###########
# Contact #
###########
#############################################
# STEP Settings for FrontSTR Ver.3 or later #
#############################################
#########################
# Post Process Settings #
#########################
!VISUAL, method=PSR
!surface_num=1
!surface
!display_method=1
!surface_style=1
!initial_style=1
#!output_type = COMPLETE_REORDER_AVS
!output_type = VTK
!x_resolution = 800
!y_resolution = 600
!num_of_lights = 1
!position_of_lights = 100.000, 100.000, 50.0000
!up_direction = 0.00000, 0.00000, 1.00000
!ambient_coef = 0.3
!diffuse_coef = 0.7
!specular_coef = 0.5
!color_mapping_bar_on = 1
!scale_marking_on = 1
!num_of_scale = 3
!font_size = 1.5
!font_color = 1.00000, 1.00000, 1.00000
!background_color = 0.00000, 0.00000, 0.00000
!END
