!VERSION
 3
!SOLUTION,TYPE=STATIC
!TEMPERATURE
 261, 1.0
!SOLVER,METHOD=DIRECT,ITERLOG=NO,TIMELOG=NO, DUMPTYPE = MM, DUMPEXIT = YES
 10000, 1
 1.0e-8, 1.0, 0.0
!MATERIAL, NAME=FC300
!ELASTIC, TYPE=ISOTROPIC
 130000.0, 0.27
!DENSITY
 7.4e-9
!EXPANSION_COEFF
 1.2e-5
!END
